Version 4
SHEET 1 1940 972
WIRE 384 -192 176 -192
WIRE 544 -192 464 -192
WIRE 608 -192 544 -192
WIRE 704 -192 608 -192
WIRE 912 -128 752 -128
WIRE 1168 -128 992 -128
WIRE -128 -96 -144 -96
WIRE -80 -96 -128 -96
WIRE 1376 -96 1328 -96
WIRE 1504 -96 1456 -96
WIRE -128 0 -128 -96
WIRE -112 0 -128 0
WIRE 0 16 0 -96
WIRE 0 16 -48 16
WIRE 48 16 0 16
WIRE 176 16 176 -192
WIRE 176 16 112 16
WIRE 240 16 176 16
WIRE 368 16 320 16
WIRE 480 16 432 16
WIRE 608 16 480 16
WIRE 704 16 608 16
WIRE -304 32 -368 32
WIRE -224 32 -240 32
WIRE -112 32 -224 32
WIRE 1168 32 1168 -128
WIRE 1168 32 1104 32
WIRE 1328 32 1328 -96
WIRE 1328 32 1168 32
WIRE 1392 32 1328 32
WIRE -368 48 -368 32
WIRE 1504 48 1504 -96
WIRE 1504 48 1456 48
WIRE 1584 48 1504 48
WIRE 1776 48 1648 48
WIRE 1392 64 1328 64
WIRE 912 80 752 80
WIRE 1104 80 1104 32
WIRE 1104 80 992 80
WIRE 480 96 480 80
WIRE 1776 96 1776 48
WIRE 1328 112 1328 64
WIRE 176 192 176 16
WIRE 320 192 176 192
WIRE 592 192 384 192
WIRE 704 192 592 192
WIRE 912 256 752 256
WIRE 1168 256 1168 32
WIRE 1168 256 992 256
FLAG -608 128 0
FLAG -512 128 0
FLAG -368 128 0
FLAG -608 48 Vcc
FLAG -512 48 Vss
FLAG -80 -16 Vcc
FLAG -80 48 Vss
FLAG -224 112 0
FLAG 1776 176 0
FLAG 1776 48 Out
FLAG 544 -128 0
FLAG 480 96 0
FLAG 704 -64 0
FLAG 704 144 0
FLAG 704 320 0
FLAG 1424 16 Vcc
FLAG 1424 80 Vss
FLAG 1328 112 0
FLAG -224 -96 0
FLAG 608 16 BPOut
FLAG 608 -192 LPOut
FLAG 592 192 HPOut
SYMBOL OpAmps\\RH1056A -80 -48 R0
WINDOW 3 106 -20 Left 2
SYMATTR InstName U1
SYMBOL Misc\\signal -368 32 R0
WINDOW 123 24 132 Left 2
WINDOW 39 0 0 Left 0
SYMATTR Value2 AC 200m 0
SYMATTR InstName V1
SYMBOL voltage -512 32 R0
WINDOW 123 0 0 Left 0
WINDOW 39 0 0 Left 0
SYMATTR InstName V2
SYMATTR Value -15
SYMBOL voltage -608 32 R0
WINDOW 123 0 0 Left 0
WINDOW 39 0 0 Left 0
SYMATTR InstName V3
SYMATTR Value 15
SYMBOL cap -240 16 R90
WINDOW 0 0 32 VBottom 2
WINDOW 3 32 32 VTop 2
SYMATTR InstName C1
SYMATTR Value 1µ
SYMBOL res -240 16 R0
SYMATTR InstName R1
SYMATTR Value 100k
SYMBOL res 1760 80 R0
SYMATTR InstName R3
SYMATTR Value 10k
SYMBOL cap 1648 32 R90
WINDOW 0 0 32 VBottom 2
WINDOW 3 32 32 VTop 2
SYMATTR InstName C9
SYMATTR Value 2µ
SYMBOL res 480 -208 R90
WINDOW 0 0 56 VBottom 2
WINDOW 3 32 56 VTop 2
SYMATTR InstName R2
SYMATTR Value 10k
SYMBOL cap 528 -192 R0
SYMATTR InstName C2
SYMATTR Value 180n
SYMBOL res 336 0 R90
WINDOW 0 0 56 VBottom 2
WINDOW 3 32 56 VTop 2
SYMATTR InstName R4
SYMATTR Value 10k
SYMBOL cap 464 16 R0
SYMATTR InstName C3
SYMATTR Value 22n
SYMBOL cap 432 0 R90
WINDOW 0 0 32 VBottom 2
WINDOW 3 32 32 VTop 2
SYMATTR InstName C4
SYMATTR Value 47n
SYMBOL cap 384 176 R90
WINDOW 0 0 32 VBottom 2
WINDOW 3 32 32 VTop 2
SYMATTR InstName C5
SYMATTR Value 10n
SYMBOL Potentiometer 704 -128 R0
WINDOW 39 28 -21 Left 0
SYMATTR SpiceLine R={Rbase} Val=1
SYMATTR InstName X1
SYMBOL Potentiometer 704 80 R0
WINDOW 39 28 -21 Left 0
SYMATTR SpiceLine R={Rbase} Val={Valpot}
SYMATTR InstName X2
SYMBOL Potentiometer 704 256 R0
WINDOW 39 28 -21 Left 0
SYMATTR SpiceLine R={Rbase} Val=1
SYMATTR InstName X3
SYMBOL OpAmps\\RH1056A 1424 -16 R0
WINDOW 3 106 -20 Left 2
SYMATTR InstName U2
SYMBOL res 1472 -112 R90
WINDOW 0 0 56 VBottom 2
WINDOW 3 32 56 VTop 2
SYMATTR InstName R7
SYMATTR Value 150k
SYMBOL cap 112 0 R90
WINDOW 0 0 32 VBottom 2
WINDOW 3 32 32 VTop 2
SYMATTR InstName C6
SYMATTR Value 1µ
SYMBOL res 1008 -144 R90
WINDOW 0 0 56 VBottom 2
WINDOW 3 32 56 VTop 2
SYMATTR InstName R8
SYMATTR Value 47k
SYMBOL res 1008 64 R90
WINDOW 0 0 56 VBottom 2
WINDOW 3 32 56 VTop 2
SYMATTR InstName R5
SYMATTR Value 47k
SYMBOL res 1008 240 R90
WINDOW 0 0 56 VBottom 2
WINDOW 3 32 56 VTop 2
SYMATTR InstName R6
SYMATTR Value 47k
SYMBOL res -128 -112 R90
WINDOW 0 0 56 VBottom 2
WINDOW 3 32 56 VTop 2
SYMATTR InstName R9
SYMATTR Value 22k
SYMBOL res 16 -112 R90
WINDOW 0 0 56 VBottom 2
WINDOW 3 32 56 VTop 2
SYMATTR InstName R10
SYMATTR Value 22k
TEXT -656 264 Left 2 !.ac dec 30 10 100k
TEXT 96 304 Left 2 !.STEP param Valpot 1 100 5
TEXT 96 344 Left 2 !.param RBase 50k
TEXT 440 224 Left 2 ;Trebble
TEXT 448 -16 Left 2 ;Middle
TEXT 464 -232 Left 2 ;Bass
