Version 4
SHEET 1 1540 680
WIRE -272 -192 -448 -192
WIRE -112 -192 -272 -192
WIRE 0 -192 -112 -192
WIRE 240 -192 0 -192
WIRE 1296 -192 240 -192
WIRE 0 -144 0 -192
WIRE -112 -128 -112 -192
WIRE 240 -112 240 -192
WIRE 240 -112 96 -112
WIRE 400 -112 240 -112
WIRE -272 -80 -272 -112
WIRE -176 -80 -272 -80
WIRE 96 -64 96 -112
WIRE 400 -64 400 -112
WIRE -272 -32 -272 -80
WIRE -64 -32 -112 -32
WIRE 0 -32 0 -80
WIRE 0 -32 -64 -32
WIRE -448 -16 -448 -192
WIRE -112 -16 -112 -32
WIRE 0 0 0 -32
WIRE 1296 0 1296 -192
WIRE 96 48 96 16
WIRE 176 48 96 48
WIRE 400 48 400 16
WIRE 400 48 320 48
WIRE 992 48 960 48
WIRE 1152 48 1056 48
WIRE -272 64 -272 48
WIRE -112 64 -272 64
WIRE 0 64 -112 64
WIRE 96 80 96 48
WIRE 400 80 400 48
WIRE -208 144 -272 144
WIRE -112 144 -144 144
WIRE -64 144 -112 144
WIRE 48 144 -64 144
WIRE 480 144 448 144
WIRE 576 144 480 144
WIRE 1296 144 1296 96
WIRE 1376 144 1296 144
WIRE 1472 144 1440 144
WIRE 1296 176 1296 144
WIRE -272 208 -272 144
WIRE 1472 256 1472 224
WIRE 96 272 96 176
WIRE 256 272 96 272
WIRE 400 272 400 176
WIRE 400 272 256 272
FLAG -448 64 0
FLAG 256 352 0
FLAG 480 144 In+
FLAG -64 144 In-
FLAG 176 48 Out1
FLAG 320 48 Out2
FLAG -272 288 0
FLAG -272 64 0
FLAG -64 -32 VGnd
FLAG 576 144 VGnd
FLAG -112 224 VGnd
FLAG 960 48 Out1
FLAG 1296 256 0
FLAG 1472 144 Out
FLAG 1472 256 0
SYMBOL njf 48 80 R0
SYMATTR InstName J1
SYMATTR Value LSK389A
SYMBOL njf 448 80 M0
SYMATTR InstName J2
SYMATTR Value LSK389A
SYMBOL res 80 -80 R0
SYMATTR InstName R1
SYMATTR Value {Rpu}
SYMBOL res 384 -80 R0
SYMATTR InstName R2
SYMATTR Value 5.6k
SYMBOL res 240 256 R0
SYMATTR InstName R3
SYMATTR Value 5,6k
SYMBOL voltage -448 -32 R0
WINDOW 123 0 0 Left 0
WINDOW 39 0 0 Left 0
SYMATTR InstName V1
SYMATTR Value 9
SYMBOL Misc\\signal -272 192 R0
WINDOW 3 -43 145 Left 2
WINDOW 123 0 0 Left 0
WINDOW 39 0 0 Left 0
SYMATTR InstName V2
SYMATTR Value SINE(0 200m 1K)
SYMBOL res -288 -208 R0
SYMATTR InstName R4
SYMATTR Value 100k
SYMBOL res -288 -48 R0
SYMATTR InstName R5
SYMATTR Value 150k
SYMBOL npn -176 -128 R0
SYMATTR InstName Q1
SYMATTR Value 2N2222
SYMBOL res -128 -32 R0
SYMATTR InstName R6
SYMATTR Value 10k
SYMBOL cap -16 -144 R0
SYMATTR InstName C1
SYMATTR Value 100n
SYMBOL cap -16 0 R0
SYMATTR InstName C2
SYMATTR Value 100n
SYMBOL cap -144 128 R90
WINDOW 0 0 32 VBottom 2
WINDOW 3 32 32 VTop 2
SYMATTR InstName C3
SYMATTR Value 100n
SYMBOL res -128 128 R0
SYMATTR InstName R7
SYMATTR Value 100k
SYMBOL pnp 1232 96 M180
SYMATTR InstName Q2
SYMATTR Value 2N2907
SYMBOL res 1248 32 R90
WINDOW 0 0 56 VBottom 2
WINDOW 3 32 56 VTop 2
SYMATTR InstName R8
SYMATTR Value 33k
SYMBOL res 1280 160 R0
SYMATTR InstName R9
SYMATTR Value 10k
SYMBOL cap 1440 128 R90
WINDOW 0 0 32 VBottom 2
WINDOW 3 32 32 VTop 2
SYMATTR InstName C4
SYMATTR Value 100n
SYMBOL cap 1056 32 R90
WINDOW 0 0 32 VBottom 2
WINDOW 3 32 32 VTop 2
SYMATTR InstName C5
SYMATTR Value 100n
SYMBOL res 1456 128 R0
SYMATTR InstName R12
SYMATTR Value 10k
TEXT -480 376 Left 2 !.tran 0 10m 1m
TEXT 320 -152 Left 2 !.param Rpu=5.6k
